#======================================================================

# CRYSTAL DATA

#----------------------------------------------------------------------

data_VESTA_phase_1


_chemical_name_common                  'CONTCAR                               '
_cell_length_a                         2.86825
_cell_length_b                         2.93772
_cell_length_c                         20.00000
_cell_angle_alpha                      90
_cell_angle_beta                       90
_cell_angle_gamma                      90
_space_group_name_H-M_alt              'P 1'
_space_group_IT_number                 1

loop_
_space_group_symop_operation_xyz
   'x, y, z'

loop_
   _atom_site_label
   _atom_site_occupancy
   _atom_site_fract_x
   _atom_site_fract_y
   _atom_site_fract_z
   _atom_site_adp_type
   _atom_site_B_iso_or_equiv
   _atom_site_type_symbol
   Cr1        1.0     0.000000      0.505585      0.239044     Biso  1.000000 Cr
   Cr2        1.0     0.500000      0.505501      0.134551     Biso  1.000000 Cr
   B1         1.0     0.000000      0.005514      0.159529     Biso  1.000000 B
   B2         1.0     0.500000      0.005559      0.214056     Biso  1.000000 B
