#======================================================================

# CRYSTAL DATA

#----------------------------------------------------------------------

data_VESTA_phase_1


_chemical_name_common                  'CONTCAR                               '
_cell_length_a                         3.05250
_cell_length_b                         3.20905
_cell_length_c                         20.00000
_cell_angle_alpha                      90
_cell_angle_beta                       90
_cell_angle_gamma                      90
_space_group_name_H-M_alt              'P 1'
_space_group_IT_number                 1

loop_
_space_group_symop_operation_xyz
   'x, y, z'

loop_
   _atom_site_label
   _atom_site_occupancy
   _atom_site_fract_x
   _atom_site_fract_y
   _atom_site_fract_z
   _atom_site_adp_type
   _atom_site_B_iso_or_equiv
   _atom_site_type_symbol
   Hf1        1.0     1.000000      0.505530      0.256319     Biso  1.000000 Hf
   Hf2        1.0     0.500000      0.505576      0.117279     Biso  1.000000 Hf
   B1         1.0    -0.000000      0.005536      0.167219     Biso  1.000000 B
   B2         1.0     0.500000      0.005518      0.206363     Biso  1.000000 B
