#======================================================================

# CRYSTAL DATA

#----------------------------------------------------------------------

data_VESTA_phase_1


_chemical_name_common                  'Nb5B2                                 '
_cell_length_a                         5.92157
_cell_length_b                         5.92166
_cell_length_c                         22.00000
_cell_angle_alpha                      90
_cell_angle_beta                       90
_cell_angle_gamma                      90
_space_group_name_H-M_alt              'P 1'
_space_group_IT_number                 1

loop_
_space_group_symop_operation_xyz
   'x, y, z'

loop_
   _atom_site_label
   _atom_site_occupancy
   _atom_site_fract_x
   _atom_site_fract_y
   _atom_site_fract_z
   _atom_site_adp_type
   _atom_site_B_iso_or_equiv
   _atom_site_type_symbol
   Nb1        1.0     0.177633      0.322367      0.077190     Biso  1.000000 Nb
   Nb2        1.0     0.822367      0.677633      0.077190     Biso  1.000000 Nb
   Nb3        1.0     0.677633      0.177633      0.077190     Biso  1.000000 Nb
   Nb4        1.0     0.322367      0.822367      0.077190     Biso  1.000000 Nb
   Nb5        1.0     0.177639      0.322360      0.223665     Biso  1.000000 Nb
   Nb6        1.0     0.822361      0.677639      0.223665     Biso  1.000000 Nb
   Nb7        1.0     0.677639      0.177640      0.223665     Biso  1.000000 Nb
   Nb8        1.0     0.322361      0.822361      0.223665     Biso  1.000000 Nb
   Nb9        1.0     1.000001      0.000000      0.150424     Biso  1.000000 Nb
   Nb10       1.0     0.499999      0.500000      0.150424     Biso  1.000000 Nb
   B1         1.0     0.107674      0.607674      0.150428     Biso  1.000000 B
   B2         1.0     0.892326      0.392326      0.150428     Biso  1.000000 B
   B3         1.0     0.392326      0.107674      0.150428     Biso  1.000000 B
   B4         1.0     0.607674      0.892326      0.150428     Biso  1.000000 B
