#======================================================================

# CRYSTAL DATA

#----------------------------------------------------------------------

data_VESTA_phase_1


_chemical_name_common                  'FeB2                                  '
_cell_length_a                         3.46341
_cell_length_b                         3.04604
_cell_length_c                         22.00000
_cell_angle_alpha                      90
_cell_angle_beta                       90
_cell_angle_gamma                      90
_space_group_name_H-M_alt              'P 1'
_space_group_IT_number                 1

loop_
_space_group_symop_operation_xyz
   'x, y, z'

loop_
   _atom_site_label
   _atom_site_occupancy
   _atom_site_fract_x
   _atom_site_fract_y
   _atom_site_fract_z
   _atom_site_adp_type
   _atom_site_B_iso_or_equiv
   _atom_site_type_symbol
   B1         1.0     0.500000      0.499979      0.408246     Biso  1.000000 B
   B2         1.0     0.500001      0.000017      0.435762     Biso  1.000000 B
   B3         1.0     0.999999      0.499982      0.260310     Biso  1.000000 B
   B4         1.0     1.000000      0.000020      0.287822     Biso  1.000000 B
   Ru1        1.0     0.000001      1.000001      0.386755     Biso  1.000000 Ru
   Ru2        1.0     0.499999      0.500000      0.309325     Biso  1.000000 Ru
