#======================================================================

# CRYSTAL DATA

#----------------------------------------------------------------------

data_VESTA_phase_1


_chemical_name_common                  'Nb3B4\(2)                             '
_cell_length_a                         2.92059
_cell_length_b                         2.97349
_cell_length_c                         22.00000
_cell_angle_alpha                      90
_cell_angle_beta                       90
_cell_angle_gamma                      90
_space_group_name_H-M_alt              'P 1'
_space_group_IT_number                 1

loop_
_space_group_symop_operation_xyz
   'x, y, z'

loop_
   _atom_site_label
   _atom_site_occupancy
   _atom_site_fract_x
   _atom_site_fract_y
   _atom_site_fract_z
   _atom_site_adp_type
   _atom_site_B_iso_or_equiv
   _atom_site_type_symbol
   V1         1.0     0.499998      0.500000      0.411118     Biso  1.000000 V
   V2         1.0     0.999999      0.500000      0.300973     Biso  1.000000 V
   V3         1.0     0.500003      0.500000      0.190812     Biso  1.000000 V
   B1         1.0    -0.000002      0.000000      0.382998     Biso  1.000000 B
   B2         1.0     0.499998      0.000000      0.340992     Biso  1.000000 B
   B3         1.0     1.000003      1.000000      0.218943     Biso  1.000000 B
   B4         1.0     0.500001      1.000000      0.260944     Biso  1.000000 B
